# Copyright for IFWaRM
//Contains forms for copyright claims
//Flow and Sediment Transport Modelling in River Basins using TELEMAC 2D and 3D Numerical Codes Training Manual 
